/*--------------------------------*- C++ -*----------------------------------*\
| =========                 |                                                 |
| \\      /  F ield         | OpenFOAM: The Open Source CFD Toolbox           |
|  \\    /   O peration     | Version:  v2312                                 |
|   \\  /    A nd           | Website:  www.openfoam.com                      |
|    \\/     M anipulation  |                                                 |
\*---------------------------------------------------------------------------*/
FoamFile
{
    version     2.0;
    format      ascii;
    class       volScalarField;
    object      T;
}
// * * * * * * * * * * * * * * * * * * * * * * * * * * * * * * * * * * * * * //

dimensions      [0 0 0 1 0 0 0];

internalField   uniform 0;

boundaryField
{
   xmin
    {
        type            fixedValue;
        value           uniform 300;
    }
    xmax
    {
        type            fixedValue;
        value           uniform 350;
    
    }

    ymin
    {
        type            fixedValue;
        value           uniform 300;
    
    }

    ymax
    {
        type            fixedValue;
        value           uniform 350;
    
    }

    frontAndBack
    {
        type            empty;
        
    }
}


// ************************************************************************* //
